ligand
  PyMOL2.2          3D                             0

 12 12  0  0  0  0  0  0  0  0999 V2000
    9.5620   13.3180  148.4560 C   0  0  0  0  0  0  0  0  0  0  0  0
   12.5410    9.4490  145.9020 C   0  0  0  0  0  0  0  0  0  0  0  0
   11.1440   13.9110  146.3350 N   0  0  0  0  0  0  0  0  0  0  0  0
    9.8660   13.5160  149.8810 N   0  0  0  0  0  0  0  0  0  0  0  0
    9.4160   12.7770  150.5980 N   0  0  0  0  0  0  0  0  0  0  0  0
    8.9690   12.0430  151.3190 N   0  0  0  0  0  0  0  0  0  0  0  0
   11.0400   10.0790  147.6010 N   0  0  0  0  0  0  0  0  0  0  0  0
   11.7900   10.4260  146.5440 C   0  0  0  0  0  0  0  0  0  0  0  0
   11.8800   11.7070  146.1590 N   0  0  0  0  0  0  0  0  0  0  0  0
   11.2220   12.6730  146.8140 C   0  0  0  0  0  0  0  0  0  0  0  0
   10.4320   12.3760  147.9200 C   0  0  0  0  0  0  0  0  0  0  0  0
   10.3450   11.0520  148.3270 C   0  0  0  0  0  0  0  0  0  0  0  0
  1 11  1  0  0  0  0
  1  4  1  0  0  0  0
  4  5  1  0  0  0  0
  5  6  1  0  0  0  0
  7  8  4  0  0  0  0
  2  8  1  0  0  0  0
  8  9  4  0  0  0  0
  9 10  4  0  0  0  0
  3 10  1  0  0  0  0
 10 11  4  0  0  0  0
 11 12  4  0  0  0  0
  7 12  4  0  0  0  0
M  END
$$$$
